LAMMPS (10 Dec 2025 - Development - patch_10Dec2025-121-gd51f1eef21)
# EAM Copper benchmark - larger scale
# 瓶颈: pair_eam (many-body势, 比 LJ 复杂)
# 特点: 需要计算嵌入能, 代码优化空间大

units           metal
atom_style      atomic

# 40x40x40 box = 256,000 atoms (比 melt_xxlarge 的 131k 大)
lattice         fcc 3.615
Lattice spacing in x,y,z = 3.615 3.615 3.615
region          box block 0 40 0 40 0 40
create_box      1 box
Created orthogonal box = (0 0 0) to (144.6 144.6 144.6)
create_atoms    1 box
Created 256000 atoms

pair_style      eam
pair_coeff      1 1 ../../third_party/lammps/bench/Cu_u3.eam
Reading eam potential file ../../third_party/lammps/bench/Cu_u3.eam with DATE: 2007-06-11

velocity        all create 1600.0 376847 loop geom

neighbor        1.0 bin
neigh_modify    every 1 delay 5 check yes

fix             1 all nve

timestep        0.005
thermo          100
thermo_style    custom step temp pe ke etotal press

# 1000 步, 预计运行 30-60 秒
run             1000
Step          Temp          PotEng         KinEng         TotEng         Press
0   1600          -906240         52944.749     -853295.25      18704.085
Averages over the last 6 of 11 rows, steps 500 to 1000:
Temp PotEng KinEng TotEng Press
798.218 -879537 26413.4 -853123 51528.4
Loop time of 174.921 on 1 procs for 1000 steps with 256000 atoms
