LAMMPS (10 Dec 2025 - Development - patch_10Dec2025-121-gd51f1eef21)
# FENE bead-spring polymer chains
# 瓶颈: pair + bond + neighbor (高密度聚合物)
# 特点: 键相互作用显著, 邻居列表更新频繁

units           lj
atom_style      bond
special_bonds   fene

read_data       ../../third_party/lammps/bench/data.chain
Reading data file ...
  orthogonal box = (-16.796 -16.796 -16.796) to (16.796 16.796 16.796)
  reading atoms ...
  32000 atoms
  reading velocities ...
  32000 velocities
  scanning bonds ...
  orthogonal box = (-16.796 -16.796 -16.796) to (16.796 16.796 16.796)
  reading bonds ...
  31680 bonds
Finding 1-2 1-3 1-4 neighbors ...
     2 = max # of 1-2 neighbors
     2 = max # of special neighbors

# 复制系统 2x2x2 = 8倍原子数
replicate       2 2 2
Replication is creating a 2x2x2 = 8 times larger system...
  orthogonal box = (-16.796 -16.796 -16.796) to (50.388 50.388 50.388)
  256000 atoms
  253440 bonds
Finding 1-2 1-3 1-4 neighbors ...
     2 = max # of 1-2 neighbors
     2 = max # of special neighbors
  replicate CPU = 0.021 seconds

neighbor        0.4 bin
neigh_modify    every 1 delay 1

bond_style      fene
bond_coeff      1 30.0 1.5 1.0 1.0

pair_style      lj/cut 1.12
pair_modify     shift yes
pair_coeff      1 1 1.0 1.0 1.12

fix             1 all nve
fix             2 all langevin 1.0 1.0 10.0 904297

thermo          100
thermo_style    custom step temp pe ke etotal press
timestep        0.012

# 2000 步, 预计运行 30-60 秒
run             2000
Generated 0 of 0 mixed pair_coeff terms from geometric mixing rule
Step          Temp          PotEng         KinEng         TotEng         Press
0   0.97027119     20.939364      1.4554011      22.394765      4.6721833
Averages over the last 11 of 21 rows, steps 1000 to 2000:
Temp PotEng KinEng TotEng Press
0.995748 20.964 1.49362 22.4576 4.77971
Loop time of 73.4362 on 1 procs for 2000 steps with 256000 atoms
