LAMMPS (10 Dec 2025 - Development - patch_10Dec2025-121-gd51f1eef21-modified)
# 3d Lennard-Jones melt (xxlarge system)

units           lj
atom_style      atomic

lattice         fcc 0.8442
Lattice spacing in x,y,z = 1.6795962 1.6795962 1.6795962
region          box block 0 32 0 32 0 32
create_box      1 box
Created orthogonal box = (0 0 0) to (53.747078 53.747078 53.747078)
create_atoms    1 box
Created 131072 atoms
mass            1 1.0

velocity        all create 3.0 87287 loop geom

pair_style      lj/cut 2.5
pair_coeff      1 1 1.0 1.0 2.5

neighbor        0.6 bin
neigh_modify    every 40 delay 0 check no

fix             1 all nve

thermo          100
run             1200
Generated 0 of 0 mixed pair_coeff terms from geometric mixing rule
Step          Temp          E_pair         E_mol          TotEng         Press
0   3             -6.7733681      0             -2.2734024     -3.7027366
Averages over the last 7 of 13 rows, steps 600 to 1200:
Temp E_pair E_mol TotEng Press
1.64328 -4.74661 0 -2.28171 5.87144
Loop time of 57.3056 on 1 procs for 1200 steps with 131072 atoms
